Circuit: * C:\users\mes\Desktop\Dropbox\Projects\power\24vAudioSupply\FulWaveBridge.asc

.OP point found by inspection.

Date: Mon Aug 28 10:03:55 2023
Total elapsed time: 0.095 seconds.

tnom = 27
temp = 27
method = modified trap
totiter = 9588
traniter = 9588
tranpoints = 3472
accept = 2544
rejected = 928
matrix size = 8
fillins = 5
solver = Normal
Matrix Compiler1:      32 opcodes  1.3/[1.2]/1.3
Matrix Compiler2: 656 bytes object code size  1.3/1.3/[1.2]

